data_image0
_cell_length_a       15.8753
_cell_length_b       15.8753
_cell_length_c       15.8753
_cell_angle_alpha    90
_cell_angle_beta     90
_cell_angle_gamma    90

loop_
  _atom_site_label
  _atom_site_occupancy
  _atom_site_fract_x
  _atom_site_fract_y
  _atom_site_fract_z
  _atom_site_thermal_displace_type
  _atom_site_B_iso_or_equiv
  _atom_site_type_symbol
  He1      1.0000 0.00000  0.00000  0.00000  Biso   1.000  He
  He2      1.0000 0.00000  0.00000  REPL  Biso   1.000  He
